  M2Kto2005 converter version 1.2       
 
  MODOUT:           0
  Maximum number of variables:        2000
  Maximum number of file names:         300
 

 OPENING OUTPUT.DAT
 FILE TYPE:LIST   UNIT   6

 OPENING SPRING.BA6
 FILE TYPE:BAS6   UNIT   1

 OPENING SPRING.BC6
 FILE TYPE:BCF6   UNIT  11

 OPENING OC.DAT
 FILE TYPE:OC   UNIT  22

 OPENING WEL.DAT
 FILE TYPE:WEL   UNIT  12

 OPENING DRN.DAT
 FILE TYPE:DRN   UNIT  13

 OPENING RCH.DAT
 FILE TYPE:RCH   UNIT  18

 OPENING SPRING.HF6
 FILE TYPE:HFB6   UNIT  26

 OPENING SIP.DAT
 FILE TYPE:SIP   UNIT  19

 OPENING BUDGET.DAT
 FILE TYPE:DATA(BINARY)   UNIT  50

 OPENING HEADS.DAT
 FILE TYPE:DATA(BINARY)   UNIT  51

 OPENING DDOWN.DAT
 FILE TYPE:DATA(BINARY)   UNIT  52

 OPENING MT3D.FLO
 FILE TYPE:DATA(BINARY)   UNIT  32

 OPENING SPRING.DIS
 FILE TYPE:DIS   UNIT  10
  MODINP:           0

 DISCRETIZATION INPUT DATA READ FROM UNIT 10
    1 LAYERS       120 ROWS       120 COLUMNS
 120 STRESS PERIOD(S) IN SIMULATION
 MODEL TIME UNIT IS DAYS
 MODEL LENGTH UNIT IS UNDEFINED
